LAMMPS (10 Feb 2015)
# 3d Lennard-Jones melt

variable	x index 1
variable	y index 1
variable	z index 1

variable	xx equal 7*$x
variable	xx equal 7*1
variable	yy equal 7*$y
variable	yy equal 7*1
variable	zz equal 7*$z
variable	zz equal 7*1

units		lj
atom_style	atomic

lattice		fcc 0.8442
Lattice spacing in x,y,z = 1.6796 1.6796 1.6796
region		box block 0 7 0 7 0 7
create_box	1 box
Created orthogonal box = (0 0 0) to (11.7572 11.7572 11.7572)
create_atoms	1 box
Created 1372 atoms
mass		1 1.0

velocity	all create 1.44 87287 loop geom

pair_style	lj/cut 2.5
pair_coeff	1 1 1.0 1.0 2.5

neighbor	0.3 bin
neigh_modify	delay 0 every 20 check no
timestep 0.005
thermo 100
fix		1 all nvt temp 1 1 1
thermo 100
run 1000
  1 neighbor list requests
  update every 20 steps, delay 0 steps, check no
Step Temp E_pair E_mol TotEng Press
0         1.44   -6.7733681            0   -4.6149424   -5.0205553
Averages over the last 6 of 11 rows, steps 500 to 1000:
Temp E_pair E_mol TotEng Press
0.947608 -5.42362 0 -4.00325 2.10334
Loop time of 0.769449 on 2 procs for 1000 steps with 1372 atoms

Pair  time (%) = 0.585617 (76.1087)
Neigh time (%) = 0.0802312 (10.4271)
Comm  time (%) = 0.0801203 (10.4127)
Outpt time (%) = 0.000291467 (0.0378799)
Other time (%) = 0.0231887 (3.01368)

dump 1 all atom  10000 mini-dump0.atom

label	    loop

variable a loop 100
run		100
Step Temp E_pair E_mol TotEng Press
1000    1.0394798    -5.359058            0   -3.8009748    2.4782618
Loop time of 0.0760405 on 2 procs for 100 steps with 1372 atoms

Pair  time (%) = 0.0592122 (77.8693)
Neigh time (%) = 0.00730193 (9.60268)
Comm  time (%) = 0.00685799 (9.01887)
Outpt time (%) = 2.36034e-05 (0.0310406)
Other time (%) = 0.00264478 (3.47812)

minimize 1.0e-4 1.0e-6 100 1000
  1 neighbor list requests
  update every 1 steps, delay 0 steps, check yes
Step Temp E_pair E_mol TotEng Press
1100    1.0490588   -5.3331601            0   -3.7607187    2.6200114
Loop time of 0.206276 on 2 procs for 100 steps with 1372 atoms

Minimization stats:
  Stopping criterion = max iterations
  Energy initial, next-to-last, final =
  Force two-norm initial, final = 1184.96 31.1815
  Force max component initial, final = 153.836 4.99386
  Final line search alpha, max atom move = 0.00659513 0.0329351
  Iterations, force evaluations = 100 193

Pair  time (%) = 0.135733 (65.8017)
Neigh time (%) = 0.0468862 (22.7298)
Comm  time (%) = 0.018114 (8.78142)
Outpt time (%) = 2.45571e-05 (0.011905)
Other time (%) = 0.0055182 (2.67515)

next  a
variable myt equal 2*10000
reset_timestep 20000
velocity all scale 1
run 8000
  1 neighbor list requests
  update every 20 steps, delay 0 steps, check no
Step Temp E_pair E_mol TotEng Press
20000            1   -6.6958282            0   -5.1969215   -2.1339404
Averages over the last 41 of 81 rows, steps 24000 to 28000:
Temp E_pair E_mol TotEng Press
0.999404 -5.34209 0 -3.84408 2.57141
Loop time of 5.85992 on 2 procs for 8000 steps with 1372 atoms

Pair  time (%) = 4.48464 (76.5307)
Neigh time (%) = 0.622959 (10.6308)
Comm  time (%) = 0.580562 (9.90734)
Outpt time (%) = 0.00242329 (0.0413536)
Other time (%) = 0.169337 (2.88975)

jump in-minimise.lj loop

variable a loop 100
run		100
Step Temp E_pair E_mol TotEng Press
28000   0.99250248   -5.3645969            0   -3.8769283    2.4497036
Loop time of 0.071115 on 2 procs for 100 steps with 1372 atoms

Pair  time (%) = 0.0551814 (77.5946)
Neigh time (%) = 0.00778627 (10.9488)
Comm  time (%) = 0.00585175 (8.22857)
Outpt time (%) = 3.20673e-05 (0.0450922)
Other time (%) = 0.00226355 (3.18294)

minimize 1.0e-4 1.0e-6 100 1000
  1 neighbor list requests
  update every 1 steps, delay 0 steps, check yes
Step Temp E_pair E_mol TotEng Press
28100   0.97060621   -5.3131397            0   -3.8582916    2.7302506
Loop time of 0.200607 on 2 procs for 100 steps with 1372 atoms

Minimization stats:
  Stopping criterion = max iterations
  Energy initial, next-to-last, final =
  Force two-norm initial, final = 1194.25 19.0861
  Force max component initial, final = 98.3464 6.95842
  Final line search alpha, max atom move = 0.0246885 0.171793
  Iterations, force evaluations = 100 192

Pair  time (%) = 0.129848 (64.7274)
Neigh time (%) = 0.0480894 (23.9719)
Comm  time (%) = 0.0176749 (8.81072)
Outpt time (%) = 2.61068e-05 (0.0130139)
Other time (%) = 0.004969 (2.47698)

next  a
variable myt equal 3*10000
reset_timestep 30000
velocity all scale 1
run 8000
  1 neighbor list requests
  update every 20 steps, delay 0 steps, check no
Step Temp E_pair E_mol TotEng Press
30000            1   -6.6680525            0   -5.1691458   -2.3758061
Averages over the last 41 of 81 rows, steps 34000 to 38000:
Temp E_pair E_mol TotEng Press
0.999131 -5.34286 0 -3.84525 2.55983
Loop time of 6.46679 on 2 procs for 8000 steps with 1372 atoms

Pair  time (%) = 4.84936 (74.9888)
Neigh time (%) = 0.664841 (10.2809)
Comm  time (%) = 0.745739 (11.5318)
Outpt time (%) = 0.00242996 (0.037576)
Other time (%) = 0.204413 (3.16097)

jump in-minimise.lj loop

variable a loop 100
run		100
Step Temp E_pair E_mol TotEng Press
38000    1.0293613   -5.3299968            0   -3.7870802    2.6464123
Loop time of 0.0967 on 2 procs for 100 steps with 1372 atoms

Pair  time (%) = 0.0684286 (70.7639)
Neigh time (%) = 0.00864792 (8.94304)
Comm  time (%) = 0.0155429 (16.0733)
Outpt time (%) = 2.89679e-05 (0.0299564)
Other time (%) = 0.00405157 (4.18983)

minimize 1.0e-4 1.0e-6 100 1000
  1 neighbor list requests
  update every 1 steps, delay 0 steps, check yes
Step Temp E_pair E_mol TotEng Press
38100    1.0386624   -5.3413134            0   -3.7844553    2.6218779
Loop time of 0.22498 on 2 procs for 100 steps with 1372 atoms

Minimization stats:
  Stopping criterion = max iterations
  Energy initial, next-to-last, final =
  Force two-norm initial, final = 1173.87 24.881
  Force max component initial, final = 118.477 7.29691
  Final line search alpha, max atom move = 0.0114177 0.0833139
  Iterations, force evaluations = 100 192

Pair  time (%) = 0.145551 (64.6951)
Neigh time (%) = 0.05048 (22.4376)
Comm  time (%) = 0.0218765 (9.72374)
Outpt time (%) = 2.53916e-05 (0.0112862)
Other time (%) = 0.00704706 (3.13231)

next  a
variable myt equal 4*10000
reset_timestep 40000
velocity all scale 1
run 8000
  1 neighbor list requests
  update every 20 steps, delay 0 steps, check no
Step Temp E_pair E_mol TotEng Press
40000            1   -6.6761359            0   -5.1772292   -2.2873278
Averages over the last 41 of 81 rows, steps 44000 to 48000:
Temp E_pair E_mol TotEng Press
0.999956 -5.34823 0 -3.84939 2.53465
Loop time of 6.83376 on 2 procs for 8000 steps with 1372 atoms

Pair  time (%) = 5.07225 (74.2234)
Neigh time (%) = 0.678997 (9.93592)
Comm  time (%) = 0.837269 (12.252)
Outpt time (%) = 0.00303185 (0.0443658)
Other time (%) = 0.242209 (3.54431)

jump in-minimise.lj loop

variable a loop 100
run		100
Step Temp E_pair E_mol TotEng Press
48000    0.9968088   -5.3638194            0    -3.869696    2.4873773
Loop time of 0.0741495 on 2 procs for 100 steps with 1372 atoms

Pair  time (%) = 0.0582104 (78.5041)
Neigh time (%) = 0.00733066 (9.88632)
Comm  time (%) = 0.00629139 (8.48474)
Outpt time (%) = 2.8491e-05 (0.0384238)
Other time (%) = 0.00228858 (3.08644)

minimize 1.0e-4 1.0e-6 100 1000
  1 neighbor list requests
  update every 1 steps, delay 0 steps, check yes
Step Temp E_pair E_mol TotEng Press
48100    0.9984242   -5.3333061            0   -3.8367614    2.5920831
Loop time of 0.219322 on 2 procs for 100 steps with 1372 atoms

Minimization stats:
  Stopping criterion = max iterations
  Energy initial, next-to-last, final =
  Force two-norm initial, final = 1140.68 29.2664
  Force max component initial, final = 86.6539 5.78727
  Final line search alpha, max atom move = 0.0181825 0.105227
  Iterations, force evaluations = 100 193

Pair  time (%) = 0.143409 (65.3872)
Neigh time (%) = 0.0520543 (23.7341)
Comm  time (%) = 0.0176848 (8.06339)
Outpt time (%) = 3.20673e-05 (0.0146211)
Other time (%) = 0.0061425 (2.80067)

next  a
variable myt equal 5*10000
reset_timestep 50000
velocity all scale 1
run 8000
  1 neighbor list requests
  update every 20 steps, delay 0 steps, check no
Step Temp E_pair E_mol TotEng Press
50000            1   -6.7041342            0   -5.2052275   -2.1466845
Averages over the last 41 of 81 rows, steps 54000 to 58000:
Temp E_pair E_mol TotEng Press
1.0023 -5.35239 0 -3.85003 2.51511
Loop time of 6.02726 on 2 procs for 8000 steps with 1372 atoms

Pair  time (%) = 4.6341 (76.8857)
Neigh time (%) = 0.630273 (10.457)
Comm  time (%) = 0.581904 (9.65453)
Outpt time (%) = 0.00202167 (0.0335421)
Other time (%) = 0.178961 (2.9692)

jump in-minimise.lj loop

variable a loop 100
run		100
Step Temp E_pair E_mol TotEng Press
58000   0.98274363   -5.3328311            0   -3.8597901    2.5541409
Loop time of 0.0694542 on 2 procs for 100 steps with 1372 atoms

Pair  time (%) = 0.0545083 (78.481)
Neigh time (%) = 0.00716901 (10.3219)
Comm  time (%) = 0.00569916 (8.20564)
Outpt time (%) = 2.24113e-05 (0.0322678)
Other time (%) = 0.00205529 (2.9592)

minimize 1.0e-4 1.0e-6 100 1000
  1 neighbor list requests
  update every 1 steps, delay 0 steps, check yes
Step Temp E_pair E_mol TotEng Press
58100    1.0363374   -5.3740336            0   -3.8206606    2.4573938
Loop time of 0.204973 on 2 procs for 100 steps with 1372 atoms

Minimization stats:
  Stopping criterion = max iterations
  Energy initial, next-to-last, final =
  Force two-norm initial, final = 1110.01 33.2149
  Force max component initial, final = 100.462 9.40984
  Final line search alpha, max atom move = 0.00898265 0.0845254
  Iterations, force evaluations = 100 197

Pair  time (%) = 0.136096 (66.3972)
Neigh time (%) = 0.0469218 (22.8917)
Comm  time (%) = 0.0168835 (8.23694)
Outpt time (%) = 2.44379e-05 (0.0119225)
Other time (%) = 0.00504684 (2.4622)

next  a
variable myt equal 6*10000
reset_timestep 60000
velocity all scale 1
run 8000
  1 neighbor list requests
  update every 20 steps, delay 0 steps, check no
Step Temp E_pair E_mol TotEng Press
60000            1   -6.6961231            0   -5.1972164    -2.202114
Averages over the last 41 of 81 rows, steps 64000 to 68000:
Temp E_pair E_mol TotEng Press
0.998401 -5.34502 0 -3.84851 2.54982
Loop time of 6.12095 on 2 procs for 8000 steps with 1372 atoms

Pair  time (%) = 4.64694 (75.9187)
Neigh time (%) = 0.648825 (10.6001)
Comm  time (%) = 0.641026 (10.4727)
Outpt time (%) = 0.00217426 (0.0355216)
Other time (%) = 0.181981 (2.97308)

jump in-minimise.lj loop

variable a loop 100
run		100
Step Temp E_pair E_mol TotEng Press
68000    1.0233306   -5.3574501            0    -3.823573    2.5309334
Loop time of 0.0659585 on 2 procs for 100 steps with 1372 atoms

Pair  time (%) = 0.0518124 (78.553)
Neigh time (%) = 0.007617 (11.5482)
Comm  time (%) = 0.00463998 (7.0347)
Outpt time (%) = 2.25306e-05 (0.0341587)
Other time (%) = 0.00186658 (2.82993)

minimize 1.0e-4 1.0e-6 100 1000
  1 neighbor list requests
  update every 1 steps, delay 0 steps, check yes
Step Temp E_pair E_mol TotEng Press
68100    1.0141285   -5.3153919            0   -3.7953078    2.7184966
Loop time of 0.196835 on 2 procs for 100 steps with 1372 atoms

Minimization stats:
  Stopping criterion = max iterations
  Energy initial, next-to-last, final =
  Force two-norm initial, final = 1145.85 26.4106
  Force max component initial, final = 93.1951 6.42917
  Final line search alpha, max atom move = 0.0127132 0.0817351
  Iterations, force evaluations = 100 194

Pair  time (%) = 0.128498 (65.2821)
Neigh time (%) = 0.0503467 (25.5781)
Comm  time (%) = 0.0131429 (6.67714)
Outpt time (%) = 2.44379e-05 (0.0124154)
Other time (%) = 0.00482297 (2.45026)

next  a
variable myt equal 7*10000
reset_timestep 70000
velocity all scale 1
run 8000
  1 neighbor list requests
  update every 20 steps, delay 0 steps, check no
Step Temp E_pair E_mol TotEng Press
70000            1   -6.6747407            0    -5.175834   -2.1497406
Averages over the last 41 of 81 rows, steps 74000 to 78000:
Temp E_pair E_mol TotEng Press
1.00028 -5.34473 0 -3.8454 2.55252
Loop time of 5.6635 on 2 procs for 8000 steps with 1372 atoms

Pair  time (%) = 4.39506 (77.6033)
Neigh time (%) = 0.61886 (10.9272)
Comm  time (%) = 0.48787 (8.61429)
Outpt time (%) = 0.00192153 (0.0339284)
Other time (%) = 0.159786 (2.82133)

jump in-minimise.lj loop

variable a loop 100
run		100
Step Temp E_pair E_mol TotEng Press
78000    1.0468236   -5.3723597            0   -3.8032687    2.4843477
Loop time of 0.107132 on 2 procs for 100 steps with 1372 atoms

Pair  time (%) = 0.0752603 (70.2499)
Neigh time (%) = 0.00959706 (8.95815)
Comm  time (%) = 0.0146148 (13.6419)
Outpt time (%) = 3.25441e-05 (0.0303775)
Other time (%) = 0.00762749 (7.1197)

minimize 1.0e-4 1.0e-6 100 1000
  1 neighbor list requests
  update every 1 steps, delay 0 steps, check yes
Step Temp E_pair E_mol TotEng Press
78100    1.0119503   -5.3137387            0   -3.7969196    2.6841991
Loop time of 0.268645 on 2 procs for 100 steps with 1372 atoms

Minimization stats:
  Stopping criterion = max iterations
  Energy initial, next-to-last, final =
  Force two-norm initial, final = 1163.47 31.0416
  Force max component initial, final = 103.448 6.49474
  Final line search alpha, max atom move = 0.01005 0.0652719
  Iterations, force evaluations = 100 189

Pair  time (%) = 0.174254 (64.8643)
Neigh time (%) = 0.0574356 (21.3798)
Comm  time (%) = 0.0296539 (11.0383)
Outpt time (%) = 2.5034e-05 (0.00931861)
Other time (%) = 0.00727558 (2.70826)

next  a
variable myt equal 8*10000
reset_timestep 80000
velocity all scale 1
run 8000
  1 neighbor list requests
  update every 20 steps, delay 0 steps, check no
Step Temp E_pair E_mol TotEng Press
80000            1   -6.6897911            0   -5.1908843    -2.140467
Averages over the last 41 of 81 rows, steps 84000 to 88000:
Temp E_pair E_mol TotEng Press
1.00196 -5.35234 0 -3.85049 2.51212
Loop time of 5.58499 on 2 procs for 8000 steps with 1372 atoms

Pair  time (%) = 4.33997 (77.7078)
Neigh time (%) = 0.615856 (11.027)
Comm  time (%) = 0.473007 (8.46926)
Outpt time (%) = 0.00195122 (0.0349368)
Other time (%) = 0.154206 (2.76107)

jump in-minimise.lj loop

variable a loop 100
run		100
Step Temp E_pair E_mol TotEng Press
88000   0.96585837   -5.3333787            0   -3.8856471    2.5609532
Loop time of 0.0796547 on 2 procs for 100 steps with 1372 atoms

Pair  time (%) = 0.0598806 (75.1752)
Neigh time (%) = 0.00896704 (11.2574)
Comm  time (%) = 0.0081718 (10.259)
Outpt time (%) = 2.25306e-05 (0.0282853)
Other time (%) = 0.00261271 (3.28005)

minimize 1.0e-4 1.0e-6 100 1000
  1 neighbor list requests
  update every 1 steps, delay 0 steps, check yes
Step Temp E_pair E_mol TotEng Press
88100    0.9964008   -5.3575225            0   -3.8640107    2.5358254
Loop time of 0.203777 on 2 procs for 100 steps with 1372 atoms

Minimization stats:
  Stopping criterion = max iterations
  Energy initial, next-to-last, final =
  Force two-norm initial, final = 1111.78 31.4478
  Force max component initial, final = 87.3661 4.70835
  Final line search alpha, max atom move = 0.00923148 0.043465
  Iterations, force evaluations = 100 189

Pair  time (%) = 0.133705 (65.6134)
Neigh time (%) = 0.048108 (23.6081)
Comm  time (%) = 0.0162752 (7.98675)
Outpt time (%) = 2.44379e-05 (0.0119925)
Other time (%) = 0.00566435 (2.77968)

next  a
variable myt equal 9*10000
reset_timestep 90000
velocity all scale 1
run 8000
  1 neighbor list requests
  update every 20 steps, delay 0 steps, check no
Step Temp E_pair E_mol TotEng Press
90000            1   -6.6976123            0   -5.1987056   -2.0708846
Averages over the last 41 of 81 rows, steps 94000 to 98000:
Temp E_pair E_mol TotEng Press
0.997172 -5.33752 0 -3.84285 2.58674
Loop time of 6.83992 on 2 procs for 8000 steps with 1372 atoms

Pair  time (%) = 5.09242 (74.4514)
Neigh time (%) = 0.682448 (9.97742)
Comm  time (%) = 0.858431 (12.5503)
Outpt time (%) = 0.00273502 (0.0399861)
Other time (%) = 0.203889 (2.98087)

jump in-minimise.lj loop

variable a loop 100
run		100
Step Temp E_pair E_mol TotEng Press
98000   0.99813563   -5.3645786            0   -3.8684664    2.4709927
Loop time of 0.075002 on 2 procs for 100 steps with 1372 atoms

Pair  time (%) = 0.0580158 (77.3524)
Neigh time (%) = 0.00735819 (9.81067)
Comm  time (%) = 0.00728536 (9.71356)
Outpt time (%) = 2.36034e-05 (0.0314704)
Other time (%) = 0.00231898 (3.09189)

minimize 1.0e-4 1.0e-6 100 1000
  1 neighbor list requests
  update every 1 steps, delay 0 steps, check yes
Step Temp E_pair E_mol TotEng Press
98100     1.007042   -5.3511233            0   -3.8416613    2.5256136
Loop time of 0.225765 on 2 procs for 100 steps with 1372 atoms

Minimization stats:
  Stopping criterion = max iterations
  Energy initial, next-to-last, final =
  Force two-norm initial, final = 1129.02 27.5738
  Force max component initial, final = 94.0579 3.8854
  Final line search alpha, max atom move = 0.0119638 0.046484
  Iterations, force evaluations = 100 194

Pair  time (%) = 0.143118 (63.3922)
Neigh time (%) = 0.0532224 (23.5742)
Comm  time (%) = 0.0230528 (10.211)
Outpt time (%) = 3.03984e-05 (0.0134646)
Other time (%) = 0.00634205 (2.80913)

next  a
variable myt equal 10*10000
reset_timestep 100000
velocity all scale 1
run 8000
  1 neighbor list requests
  update every 20 steps, delay 0 steps, check no
Step Temp E_pair E_mol TotEng Press
100000            1   -6.7181184            0   -5.2192117   -2.2604108
Averages over the last 41 of 81 rows, steps 104000 to 108000:
Temp E_pair E_mol TotEng Press
0.995817 -5.33867 0 -3.84603 2.58145
Loop time of 6.85105 on 2 procs for 8000 steps with 1372 atoms

Pair  time (%) = 5.13609 (74.9679)
Neigh time (%) = 0.685956 (10.0124)
Comm  time (%) = 0.81641 (11.9166)
Outpt time (%) = 0.00243807 (0.0355868)
Other time (%) = 0.210154 (3.06747)

jump in-minimise.lj loop

variable a loop 100
run		100
Step Temp E_pair E_mol TotEng Press
108000   0.99404552   -5.3361314            0   -3.8461499     2.605496
Loop time of 0.0688486 on 2 procs for 100 steps with 1372 atoms

Pair  time (%) = 0.053671 (77.9551)
Neigh time (%) = 0.00708628 (10.2925)
Comm  time (%) = 0.00599694 (8.71033)
Outpt time (%) = 2.39611e-05 (0.0348025)
Other time (%) = 0.00207043 (3.00722)

minimize 1.0e-4 1.0e-6 100 1000
  1 neighbor list requests
  update every 1 steps, delay 0 steps, check yes
Step Temp E_pair E_mol TotEng Press
108100   0.98915339   -5.2926628            0   -3.8100141    2.7820093
Loop time of 0.21971 on 2 procs for 100 steps with 1372 atoms

Minimization stats:
  Stopping criterion = max iterations
  Energy initial, next-to-last, final =
  Force two-norm initial, final = 1196.86 32.1162
  Force max component initial, final = 104.867 5.41457
  Final line search alpha, max atom move = 0.00772038 0.0418026
  Iterations, force evaluations = 100 185

Pair  time (%) = 0.138069 (62.8413)
Neigh time (%) = 0.0578361 (26.3238)
Comm  time (%) = 0.0177646 (8.08546)
Outpt time (%) = 3.65973e-05 (0.0166571)
Other time (%) = 0.00600421 (2.73279)

next  a
variable myt equal 11*10000
reset_timestep 110000
velocity all scale 1
run 8000
  1 neighbor list requests
  update every 20 steps, delay 0 steps, check no
Step Temp E_pair E_mol TotEng Press
110000            1   -6.7121696            0   -5.2132629   -2.0931897
Averages over the last 41 of 81 rows, steps 114000 to 118000:
Temp E_pair E_mol TotEng Press
0.997279 -5.3436 0 -3.84878 2.55531
Loop time of 6.73872 on 2 procs for 8000 steps with 1372 atoms

Pair  time (%) = 5.08543 (75.4658)
Neigh time (%) = 0.665395 (9.87419)
Comm  time (%) = 0.769775 (11.4232)
Outpt time (%) = 0.00277627 (0.0411987)
Other time (%) = 0.215347 (3.19566)

jump in-minimise.lj loop

variable a loop 100
run		100
Step Temp E_pair E_mol TotEng Press
118000    1.0158417   -5.3654762            0   -3.8428243    2.4541078
Loop time of 0.062813 on 2 procs for 100 steps with 1372 atoms

Pair  time (%) = 0.0495903 (78.9491)
Neigh time (%) = 0.00697565 (11.1054)
Comm  time (%) = 0.00451005 (7.18011)
Outpt time (%) = 2.00272e-05 (0.0318838)
Other time (%) = 0.00171697 (2.73346)

minimize 1.0e-4 1.0e-6 100 1000
  1 neighbor list requests
  update every 1 steps, delay 0 steps, check yes
Step Temp E_pair E_mol TotEng Press
118100   0.99602857   -5.3076786            0   -3.8147247    2.7049931
Loop time of 0.195481 on 2 procs for 100 steps with 1372 atoms

Minimization stats:
  Stopping criterion = max iterations
  Energy initial, next-to-last, final =
  Force two-norm initial, final = 1192.62 30.4191
  Force max component initial, final = 110.792 5.80678
  Final line search alpha, max atom move = 0.00969281 0.056284
  Iterations, force evaluations = 100 191

Pair  time (%) = 0.12516 (64.0268)
Neigh time (%) = 0.053131 (27.1796)
Comm  time (%) = 0.0125169 (6.4031)
Outpt time (%) = 2.39611e-05 (0.0122575)
Other time (%) = 0.00464904 (2.37826)

next  a
variable myt equal 12*10000
reset_timestep 120000
velocity all scale 1
run 8000
  1 neighbor list requests
  update every 20 steps, delay 0 steps, check no
Step Temp E_pair E_mol TotEng Press
120000            1   -6.6855931            0   -5.1866864   -2.1858808
Averages over the last 41 of 81 rows, steps 124000 to 128000:
Temp E_pair E_mol TotEng Press
1.00053 -5.34886 0 -3.84916 2.52813
Loop time of 5.22923 on 2 procs for 8000 steps with 1372 atoms

Pair  time (%) = 4.12589 (78.9006)
Neigh time (%) = 0.564238 (10.7901)
Comm  time (%) = 0.394956 (7.55285)
Outpt time (%) = 0.00170803 (0.0326632)
Other time (%) = 0.142435 (2.72382)

jump in-minimise.lj loop

variable a loop 100
run		100
Step Temp E_pair E_mol TotEng Press
128000    1.0369452   -5.3704578            0   -3.8161737    2.4455944
Loop time of 0.0624671 on 2 procs for 100 steps with 1372 atoms

Pair  time (%) = 0.0496293 (79.4488)
Neigh time (%) = 0.00678408 (10.8602)
Comm  time (%) = 0.00425339 (6.809)
Outpt time (%) = 2.0504e-05 (0.0328237)
Other time (%) = 0.00177979 (2.84917)

minimize 1.0e-4 1.0e-6 100 1000
  1 neighbor list requests
  update every 1 steps, delay 0 steps, check yes
Step Temp E_pair E_mol TotEng Press
128100    1.0096821   -5.3076747            0   -3.7942554     2.725856
Loop time of 0.192578 on 2 procs for 100 steps with 1372 atoms

Minimization stats:
  Stopping criterion = max iterations
  Energy initial, next-to-last, final =
  Force two-norm initial, final = 1171.41 26.1423
  Force max component initial, final = 102.479 7.27782
  Final line search alpha, max atom move = 0.0107476 0.0782193
  Iterations, force evaluations = 100 192

Pair  time (%) = 0.1247 (64.7531)
Neigh time (%) = 0.0511 (26.5347)
Comm  time (%) = 0.0121759 (6.32259)
Outpt time (%) = 2.31266e-05 (0.0120089)
Other time (%) = 0.00457871 (2.37759)

next  a
variable myt equal 13*10000
reset_timestep 130000
velocity all scale 1
run 8000
  1 neighbor list requests
  update every 20 steps, delay 0 steps, check no
Step Temp E_pair E_mol TotEng Press
130000            1   -6.6730047            0    -5.174098   -2.4592268
Averages over the last 41 of 81 rows, steps 134000 to 138000:
Temp E_pair E_mol TotEng Press
0.997895 -5.34468 0 -3.84893 2.55375
Loop time of 6.01917 on 2 procs for 8000 steps with 1372 atoms

Pair  time (%) = 4.62486 (76.8355)
Neigh time (%) = 0.615527 (10.2261)
Comm  time (%) = 0.597981 (9.9346)
Outpt time (%) = 0.0022459 (0.0373125)
Other time (%) = 0.178555 (2.96644)

jump in-minimise.lj loop

variable a loop 100
run		100
Step Temp E_pair E_mol TotEng Press
138000    1.0029005   -5.3176985            0   -3.8144442    2.6808285
Loop time of 0.0660889 on 2 procs for 100 steps with 1372 atoms

Pair  time (%) = 0.0521566 (78.9188)
Neigh time (%) = 0.00693297 (10.4904)
Comm  time (%) = 0.00505054 (7.64204)
Outpt time (%) = 2.11e-05 (0.0319268)
Other time (%) = 0.00192773 (2.91688)

minimize 1.0e-4 1.0e-6 100 1000
  1 neighbor list requests
  update every 1 steps, delay 0 steps, check yes
Step Temp E_pair E_mol TotEng Press
138100    1.0488541   -5.3644769            0   -3.7923424    2.4818441
Loop time of 0.215911 on 2 procs for 100 steps with 1372 atoms

Minimization stats:
  Stopping criterion = max iterations
  Energy initial, next-to-last, final =
  Force two-norm initial, final = 1131.6 32.4709
  Force max component initial, final = 99.524 8.50877
  Final line search alpha, max atom move = 0.00739473 0.06292
  Iterations, force evaluations = 100 194

Pair  time (%) = 0.141652 (65.6065)
Neigh time (%) = 0.0487194 (22.5646)
Comm  time (%) = 0.019251 (8.91617)
Outpt time (%) = 3.00407e-05 (0.0139135)
Other time (%) = 0.00625885 (2.89881)

next  a
variable myt equal 14*10000
reset_timestep 140000
velocity all scale 1
run 8000
  1 neighbor list requests
  update every 20 steps, delay 0 steps, check no
Step Temp E_pair E_mol TotEng Press
140000            1    -6.699261            0   -5.2003543   -2.0572766
Averages over the last 41 of 81 rows, steps 144000 to 148000:
Temp E_pair E_mol TotEng Press
1.00081 -5.34206 0 -3.84195 2.57124
Loop time of 5.582 on 2 procs for 8000 steps with 1372 atoms

Pair  time (%) = 4.36066 (78.1199)
Neigh time (%) = 0.586967 (10.5154)
Comm  time (%) = 0.472064 (8.4569)
Outpt time (%) = 0.00183308 (0.0328391)
Other time (%) = 0.160484 (2.87502)

jump in-minimise.lj loop

variable a loop 100
run		100
Loop time of 0.0675046 on 2 procs for 100 steps with 1372 atoms

Pair  time (%) = 0.0529268 (78.4046)
Neigh time (%) = 0.00700748 (10.3807)
Comm  time (%) = 0.00559914 (8.29445)
Outpt time (%) = 2.39611e-05 (0.0354954)
Other time (%) = 0.00194728 (2.88467)

minimize 1.0e-4 1.0e-6 100 1000
  1 neighbor list requests
  update every 1 steps, delay 0 steps, check yes
Loop time of 0.213754 on 2 procs for 100 steps with 1372 atoms

Minimization stats:
  Stopping criterion = max iterations
  Energy initial, next-to-last, final =
  Force two-norm initial, final = 1150.81 22.8858
  Force max component initial, final = 120.317 8.32234
  Final line search alpha, max atom move = 0.0146564 0.121976
  Iterations, force evaluations = 100 194

Pair  time (%) = 0.14291 (66.8572)
Neigh time (%) = 0.0477593 (22.3431)
Comm  time (%) = 0.0169504 (7.92985)
Outpt time (%) = 9.4533e-05 (0.0442251)
Other time (%) = 0.00603986 (2.82561)

next  a
variable myt equal 15*10000
reset_timestep 150000
velocity all scale 1
run 8000
  1 neighbor list requests
  update every 20 steps, delay 0 steps, check no
Loop time of 5.35258 on 2 procs for 8000 steps with 1372 atoms

Pair  time (%) = 4.20425 (78.5463)
Neigh time (%) = 0.579064 (10.8184)
Comm  time (%) = 0.419513 (7.83759)
Outpt time (%) = 0.00186455 (0.0348346)
Other time (%) = 0.147885 (2.76287)

jump in-minimise.lj loop

variable a loop 100
run		100
Loop time of 0.0633259 on 2 procs for 100 steps with 1372 atoms

Pair  time (%) = 0.0500681 (79.0643)
Neigh time (%) = 0.00689614 (10.8899)
Comm  time (%) = 0.00454986 (7.18484)
Outpt time (%) = 1.95503e-05 (0.0308726)
Other time (%) = 0.00179219 (2.83011)

minimize 1.0e-4 1.0e-6 100 1000
  1 neighbor list requests
  update every 1 steps, delay 0 steps, check yes
Loop time of 0.194347 on 2 procs for 100 steps with 1372 atoms

Minimization stats:
  Stopping criterion = max iterations
  Energy initial, next-to-last, final =
  Force two-norm initial, final = 1167.35 24.6658
  Force max component initial, final = 115.314 5.99921
  Final line search alpha, max atom move = 0.010199 0.0611861
  Iterations, force evaluations = 100 187

Pair  time (%) = 0.125065 (64.3512)
Neigh time (%) = 0.0528634 (27.2005)
Comm  time (%) = 0.0115329 (5.93418)
Outpt time (%) = 2.5034e-05 (0.012881)
Other time (%) = 0.00486112 (2.50125)

next  a
variable myt equal 16*10000
reset_timestep 160000
velocity all scale 1
run 8000
  1 neighbor list requests
  update every 20 steps, delay 0 steps, check no
Loop time of 5.3223 on 2 procs for 8000 steps with 1372 atoms

Pair  time (%) = 4.18657 (78.6609)
Neigh time (%) = 0.569961 (10.7089)
Comm  time (%) = 0.417408 (7.84262)
Outpt time (%) = 0.0023222 (0.0436315)
Other time (%) = 0.146041 (2.74394)

jump in-minimise.lj loop

variable a loop 100
run		100
Loop time of 0.0644995 on 2 procs for 100 steps with 1372 atoms

Pair  time (%) = 0.0501212 (77.7079)
Neigh time (%) = 0.006832 (10.5923)
Comm  time (%) = 0.00570631 (8.84706)
Outpt time (%) = 2.25306e-05 (0.0349314)
Other time (%) = 0.00181746 (2.8178)

minimize 1.0e-4 1.0e-6 100 1000
  1 neighbor list requests
  update every 1 steps, delay 0 steps, check yes
Loop time of 0.198802 on 2 procs for 100 steps with 1372 atoms

Minimization stats:
  Stopping criterion = max iterations
  Energy initial, next-to-last, final =
  Force two-norm initial, final = 1153.03 28.956
  Force max component initial, final = 114.276 5.80576
  Final line search alpha, max atom move = 0.00671858 0.0390065
  Iterations, force evaluations = 100 190

Pair  time (%) = 0.130243 (65.5141)
Neigh time (%) = 0.0488708 (24.5827)
Comm  time (%) = 0.0143616 (7.22408)
Outpt time (%) = 2.53916e-05 (0.0127723)
Other time (%) = 0.00530076 (2.66635)

next  a
variable myt equal 17*10000
reset_timestep 170000
velocity all scale 1
run 8000
  1 neighbor list requests
  update every 20 steps, delay 0 steps, check no
Loop time of 5.59801 on 2 procs for 8000 steps with 1372 atoms

Pair  time (%) = 4.36409 (77.9579)
Neigh time (%) = 0.589171 (10.5246)
Comm  time (%) = 0.48395 (8.64504)
Outpt time (%) = 0.00194502 (0.0347448)
Other time (%) = 0.158852 (2.83765)

jump in-minimise.lj loop

variable a loop 100
run		100
Loop time of 0.074759 on 2 procs for 100 steps with 1372 atoms

Pair  time (%) = 0.0571262 (76.4138)
Neigh time (%) = 0.00743115 (9.94014)
Comm  time (%) = 0.00763488 (10.2127)
Outpt time (%) = 3.14713e-05 (0.0420969)
Other time (%) = 0.00253534 (3.39135)

minimize 1.0e-4 1.0e-6 100 1000
  1 neighbor list requests
  update every 1 steps, delay 0 steps, check yes
Loop time of 0.213146 on 2 procs for 100 steps with 1372 atoms

Minimization stats:
  Stopping criterion = max iterations
  Energy initial, next-to-last, final =
  Force two-norm initial, final = 1172.34 22.9751
  Force max component initial, final = 129.757 4.26032
  Final line search alpha, max atom move = 0.0114632 0.0488368
  Iterations, force evaluations = 100 185

Pair  time (%) = 0.134819 (63.2521)
Neigh time (%) = 0.0554813 (26.0297)
Comm  time (%) = 0.0173177 (8.12479)
Outpt time (%) = 2.49147e-05 (0.0116891)
Other time (%) = 0.00550282 (2.58171)

next  a
variable myt equal 18*10000
reset_timestep 180000
velocity all scale 1
run 8000
  1 neighbor list requests
  update every 20 steps, delay 0 steps, check no
Loop time of 5.73409 on 2 procs for 8000 steps with 1372 atoms

Pair  time (%) = 4.46851 (77.9289)
Neigh time (%) = 0.601734 (10.494)
Comm  time (%) = 0.497341 (8.67341)
Outpt time (%) = 0.00209141 (0.0364732)
Other time (%) = 0.164409 (2.86722)

jump in-minimise.lj loop

variable a loop 100
run		100
Loop time of 0.0639575 on 2 procs for 100 steps with 1372 atoms

Pair  time (%) = 0.0503973 (78.7981)
Neigh time (%) = 0.00696766 (10.8942)
Comm  time (%) = 0.00475299 (7.43149)
Outpt time (%) = 2.28882e-05 (0.0357866)
Other time (%) = 0.00181663 (2.84037)

minimize 1.0e-4 1.0e-6 100 1000
  1 neighbor list requests
  update every 1 steps, delay 0 steps, check yes
Loop time of 0.192161 on 2 procs for 100 steps with 1372 atoms

Minimization stats:
  Stopping criterion = max iterations
  Energy initial, next-to-last, final =
  Force two-norm initial, final = 1179.51 24.2461
  Force max component initial, final = 119.536 6.31438
  Final line search alpha, max atom move = 0.0128253 0.0809838
  Iterations, force evaluations = 100 188

Pair  time (%) = 0.124648 (64.8663)
Neigh time (%) = 0.0514804 (26.7902)
Comm  time (%) = 0.0112548 (5.85695)
Outpt time (%) = 2.5034e-05 (0.0130276)
Other time (%) = 0.00475311 (2.4735)

next  a
variable myt equal 19*10000
reset_timestep 190000
velocity all scale 1
run 8000
  1 neighbor list requests
  update every 20 steps, delay 0 steps, check no
